.model npnbasic npn

.model pnpbasic pnp
